Program Version,EnergyPlus, Version 22.1.0-ed759b17ee, YMD=2024.02.09 11:18,
   ************* EnergyPlus Warmup Error Summary. During Warmup: 0 Warning; 0 Severe Errors.
   ************* EnergyPlus Sizing Error Summary. During Sizing: 0 Warning; 0 Severe Errors.
   ************* EnergyPlus Completed Successfully-- 0 Warning; 0 Severe Errors; Elapsed Time=00hr 00min  0.08sec
